bench/ieee39_sd133.raw
0, 100.00, 33, 0, 0, 60.000000
BENCHMARK MODEL BASED ON SD, CHINA
SHANDONG UNIVERSITY, LI CHANGGANG&XU TAOYANG, 2017-12-21
       1, "BUS-1               ",   100.00,  1,    1,    1,    1,   1.047540,  -9.570700, 1.1000, 0.9000, 1.1000, 0.9000, 60.0
       2, "BUS-2               ",   100.00,  1,    1,    1,    1,   1.048960,  -7.011100, 1.1000, 0.9000, 1.1000, 0.9000, 60.0
       3, "BUS-3               ",   100.00,  1,    1,    1,    1,   1.030420,  -9.858100, 1.1000, 0.9000, 1.1000, 0.9000, 60.0
       4, "BUS-4               ",   100.00,  1,    1,    1,    1,   1.003810, -10.654600, 1.1000, 0.9000, 1.1000, 0.9000, 60.0
       5, "BUS-5               ",   100.00,  1,    1,    1,    1,   1.005020,  -9.468700, 1.1000, 0.9000, 1.1000, 0.9000, 60.0
       6, "BUS-6               ",   100.00,  1,    1,    1,    1,   1.007360,  -8.766800, 1.1000, 0.9000, 1.1000, 0.9000, 60.0
       7, "BUS-7               ",   100.00,  1,    1,    1,    1,   0.996700, -10.970200, 1.1000, 0.9000, 1.1000, 0.9000, 60.0
       8, "BUS-8               ",   100.00,  1,    1,    1,    1,   0.995730, -11.476200, 1.1000, 0.9000, 1.1000, 0.9000, 60.0
       9, "BUS-9               ",   100.00,  1,    1,    1,    1,   1.028090, -11.299700, 1.1000, 0.9000, 1.1000, 0.9000, 60.0
      10, "BUS-10              ",   100.00,  1,    1,    1,    1,   1.017020,  -6.381600, 1.1000, 0.9000, 1.1000, 0.9000, 60.0
      11, "BUS-11              ",   100.00,  1,    1,    1,    1,   1.012530,  -7.195200, 1.1000, 0.9000, 1.1000, 0.9000, 60.0
      12, "BUS-12              ",   100.00,  1,    1,    1,    1,   1.000000,  -7.210600, 1.1000, 0.9000, 1.1000, 0.9000, 60.0
      13, "BUS-13              ",   100.00,  1,    1,    1,    1,   1.014190,  -7.095900, 1.1000, 0.9000, 1.1000, 0.9000, 60.0
      14, "BUS-14              ",   100.00,  1,    1,    1,    1,   1.011730,  -8.764800, 1.1000, 0.9000, 1.1000, 0.9000, 60.0
      15, "BUS-15              ",   100.00,  1,    1,    1,    1,   1.015780,  -9.180700, 1.1000, 0.9000, 1.1000, 0.9000, 60.0
      16, "BUS-16              ",   100.00,  1,    1,    1,    1,   1.032250,  -7.776600, 1.1000, 0.9000, 1.1000, 0.9000, 60.0
      17, "BUS-17              ",   100.00,  1,    1,    1,    1,   1.033950,  -8.774800, 1.1000, 0.9000, 1.1000, 0.9000, 60.0
      18, "BUS-18              ",   100.00,  1,    1,    1,    1,   1.031300,  -9.615600, 1.1000, 0.9000, 1.1000, 0.9000, 60.0
      19, "BUS-19              ",   100.00,  1,    1,    1,    1,   1.050010,  -3.152500, 1.1000, 0.9000, 1.1000, 0.9000, 60.0
      20, "BUS-20              ",   100.00,  1,    1,    1,    1,   0.990960,  -4.563900, 1.1000, 0.9000, 1.1000, 0.9000, 60.0
      21, "BUS-21              ",   100.00,  1,    1,    1,    1,   1.032100,  -5.371000, 1.1000, 0.9000, 1.1000, 0.9000, 60.0
      22, "BUS-22              ",   100.00,  1,    1,    1,    1,   1.049980,  -0.923900, 1.1000, 0.9000, 1.1000, 0.9000, 60.0
      23, "BUS-23              ",   100.00,  1,    1,    1,    1,   1.044980,  -1.122100, 1.1000, 0.9000, 1.1000, 0.9000, 60.0
      24, "BUS-24              ",   100.00,  1,    1,    1,    1,   1.037750,  -7.657000, 1.1000, 0.9000, 1.1000, 0.9000, 60.0
      25, "BUS-25              ",   100.00,  1,    1,    1,    1,   1.057520,  -5.649300, 1.1000, 0.9000, 1.1000, 0.9000, 60.0
      26, "BUS-26              ",   100.00,  1,    1,    1,    1,   1.052160,  -6.905800, 1.1000, 0.9000, 1.1000, 0.9000, 60.0
      27, "BUS-27              ",   100.00,  1,    1,    1,    1,   1.037950,  -8.917300, 1.1000, 0.9000, 1.1000, 0.9000, 60.0
      28, "BUS-28              ",   100.00,  1,    1,    1,    1,   1.050160,  -3.394200, 1.1000, 0.9000, 1.1000, 0.9000, 60.0
      29, "BUS-29              ",   100.00,  1,    1,    1,    1,   1.049970,  -0.635100, 1.1000, 0.9000, 1.1000, 0.9000, 60.0
      30, "BUS-30              ",   100.00,  2,    1,    1,    1,   1.047500,  -4.591800, 1.1000, 0.9000, 1.1000, 0.9000, 60.0
      31, "BUS-31              ",   100.00,  3,    1,    1,    1,   0.982000,   0.000000, 1.1000, 0.9000, 1.1000, 0.9000, 60.0
      32, "BUS-32              ",   100.00,  2,    1,    1,    1,   0.983100,   1.615500, 1.1000, 0.9000, 1.1000, 0.9000, 60.0
      33, "BUS-33              ",   100.00,  2,    1,    1,    1,   0.997200,   2.064700, 1.1000, 0.9000, 1.1000, 0.9000, 60.0
      34, "BUS-34              ",   100.00,  2,    1,    1,    1,   1.012300,   0.626300, 1.1000, 0.9000, 1.1000, 0.9000, 60.0
      35, "BUS-35              ",   100.00,  2,    1,    1,    1,   1.049300,   4.037000, 1.1000, 0.9000, 1.1000, 0.9000, 60.0
      36, "BUS-36              ",   100.00,  2,    1,    1,    1,   1.063500,   6.729500, 1.1000, 0.9000, 1.1000, 0.9000, 60.0
      37, "BUS-37              ",   100.00,  2,    1,    1,    1,   1.027800,   1.135500, 1.1000, 0.9000, 1.1000, 0.9000, 60.0
      38, "BUS-38              ",   100.00,  2,    1,    1,    1,   1.026500,   6.428200, 1.1000, 0.9000, 1.1000, 0.9000, 60.0
      39, "BUS-39              ",   100.00,  2,    1,    1,    1,   1.030000, -11.108300, 1.1000, 0.9000, 1.1000, 0.9000, 60.0
     101, "BEIZHOU             ",   525.00,  1,   37,    1,    1,   0.993670,   1.114600, 1.1000, 0.9000, 1.1000, 0.9000, 50.0
     102, "BINZHOU             ",   525.00,  1,   37,    1,    1,   0.995530,   2.509700, 1.1000, 0.9000, 1.1000, 0.9000, 50.0
     103, "BOCHANG             ",   525.00,  1,   37,    1,    1,   0.999260,   3.502400, 1.1000, 0.9000, 1.1000, 0.9000, 50.0
     104, "BOCHANG-G           ",    20.00,  2,   37,    1,    1,   1.000000,   4.075800, 1.1000, 0.9000, 1.1000, 0.9000, 50.0
     105, "CHAIFU              ",   525.00,  1,   37,    1,    1,   0.994400,   0.494000, 1.1000, 0.9000, 1.1000, 0.9000, 50.0
     106, "CHANGLE             ",   525.00,  1,   37,    1,    1,   0.996100,   4.887600, 1.1000, 0.9000, 1.1000, 0.9000, 50.0
     107, "CHANGLE-UHV         ",  1050.00,  1,   37,    1,    1,   0.996320,   4.911400, 1.1000, 0.9000, 1.1000, 0.9000, 50.0
     108, "KUNYU-PUMP          ",   525.00,  1,   37,    1,    1,   0.996350,  17.709600, 1.1000, 0.9000, 1.1000, 0.9000, 50.0
     109, "KUNYU-PUMP-G        ",    13.00,  2,   37,    1,    1,   1.000000,  18.744700, 1.1000, 0.9000, 1.1000, 0.9000, 50.0
     110, "DAZE                ",   525.00,  1,   37,    1,    1,   0.982190,  12.193100, 1.1000, 0.9000, 1.1000, 0.9000, 50.0
     111, "DAIZHONG            ",   525.00,  1,   37,    1,    1,   0.993740,  -4.116800, 1.1000, 0.9000, 1.1000, 0.9000, 50.0
     112, "DEZHOU              ",   525.00,  1,   37,    1,    1,   0.992130,  -0.522800, 1.1000, 0.9000, 1.1000, 0.9000, 50.0
     113, "DEZHOU-G            ",    20.00,  2,   37,    1,    1,   1.000000,   7.133300, 1.1000, 0.9000, 1.1000, 0.9000, 50.0
     114, "DONGE               ",   525.00,  1,   37,    1,    1,   0.992490,  -0.150400, 1.1000, 0.9000, 1.1000, 0.9000, 50.0
     115, "DONGDIAN            ",   525.00,  1,   37,    1,    1,   0.998090,   3.262300, 1.1000, 0.9000, 1.1000, 0.9000, 50.0
     116, "DONGDIAN-G          ",    20.00,  2,   37,    1,    1,   1.000000,   3.836300, 1.1000, 0.9000, 1.1000, 0.9000, 50.0
     117, "FUGUO               ",   525.00,  1,   37,    1,    1,   0.994090,   1.895000, 1.1000, 0.9000, 1.1000, 0.9000, 50.0
     118, "GAOQING             ",   525.00,  1,   37,    1,    1,   0.991830,   1.028900, 1.1000, 0.9000, 1.1000, 0.9000, 50.0
     119, "GAOQING-G           ",    20.00,  2,   37,    1,    1,   1.000000,   7.133300, 1.1000, 0.9000, 1.1000, 0.9000, 50.0
     120, "GAOXIANG            ",   525.00,  1,   37,    1,    1,   1.001790,   4.739300, 1.1000, 0.9000, 1.1000, 0.9000, 50.0
     121, "GAOXIANG-UHV        ",  1050.00,  1,   37,    1,    1,   1.001820,   4.758200, 1.1000, 0.9000, 1.1000, 0.9000, 50.0
     122, "GUANTING            ",   525.00,  1,   37,    1,    1,   0.988450,   6.838900, 1.1000, 0.9000, 1.1000, 0.9000, 50.0
     123, "GUANZHONG           ",   525.00,  1,   37,    1,    1,   0.993720,   0.245700, 1.1000, 0.9000, 1.1000, 0.9000, 50.0
     124, "GUANGZHOU           ",   525.00,  1,   37,    1,    1,   0.987200,  12.605200, 1.1000, 0.9000, 1.1000, 0.9000, 50.0
     125, "GUANGGU             ",   525.00,  1,   37,    1,    1,   0.985740,   2.631100, 1.1000, 0.9000, 1.1000, 0.9000, 50.0
     126, "GUANGGU-UHV         ",  1050.00,  1,   37,    1,    1,   1.001710,   6.275700, 1.1000, 0.9000, 1.1000, 0.9000, 50.0
     127, "GUILING             ",   525.00,  1,   37,    1,    1,   0.993970,  -1.761300, 1.1000, 0.9000, 1.1000, 0.9000, 50.0
     128, "HAIKOU              ",   525.00,  1,   37,    1,    1,   0.994260,   2.407300, 1.1000, 0.9000, 1.1000, 0.9000, 50.0
     129, "HAIYANG             ",   525.00,  1,   37,    1,    1,   0.988340,  23.005400, 1.1000, 0.9000, 1.1000, 0.9000, 50.0
     130, "HAIYANG-G           ",    20.00,  2,   37,    1,    1,   1.000000,  28.812400, 1.1000, 0.9000, 1.1000, 0.9000, 50.0
     131, "HEZE                ",   525.00,  1,   37,    1,    1,   0.993680,  -1.452600, 1.1000, 0.9000, 1.1000, 0.9000, 50.0
     132, "HEZE-G              ",    20.00,  2,   37,    1,    1,   1.000000,  -0.876000, 1.1000, 0.9000, 1.1000, 0.9000, 50.0
     133, "HEZE-UHV            ",  1050.00,  1,   37,    1,    1,   0.993430,  -1.451300, 1.1000, 0.9000, 1.1000, 0.9000, 50.0
     134, "HUADE               ",   525.00,  1,   37,    1,    1,   0.998580,   3.036400, 1.1000, 0.9000, 1.1000, 0.9000, 50.0
     135, "HUADE-G             ",    20.00,  2,   37,    1,    1,   1.000000,   4.470900, 1.1000, 0.9000, 1.1000, 0.9000, 50.0
     136, "HUIMIN              ",   525.00,  1,   37,    1,    1,   0.996440,   0.280600, 1.1000, 0.9000, 1.1000, 0.9000, 50.0
     137, "JIMO                ",   525.00,  1,   37,    1,    1,   0.977800,  14.742400, 1.1000, 0.9000, 1.1000, 0.9000, 50.0
     138, "JINAN               ",   525.00,  1,   37,    1,    1,   0.986750,  -1.743900, 1.1000, 0.9000, 1.1000, 0.9000, 50.0
     139, "JINAN-G             ",    20.00,  2,   37,    1,    1,   1.000000,   7.133300, 1.1000, 0.9000, 1.1000, 0.9000, 50.0
     140, "JIAXIANG            ",   525.00,  1,   37,    1,    1,   1.000230,  -1.167600, 1.1000, 0.9000, 1.1000, 0.9000, 50.0
     141, "JIAXIANG-G          ",    20.00,  2,   37,    1,    1,   1.000000,  -0.789600, 1.1000, 0.9000, 1.1000, 0.9000, 50.0
     142, "JIAODONG            ",   525.00,  1,   37,    1,    1,   0.985130,  10.944900, 1.1000, 0.9000, 1.1000, 0.9000, 50.0
     143, "JINXIANG            ",   525.00,  1,   37,    1,    1,   0.998870,  -1.618300, 1.1000, 0.9000, 1.1000, 0.9000, 50.0
     144, "JUNAN               ",   525.00,  1,   37,    1,    1,   1.000720,   2.905000, 1.1000, 0.9000, 1.1000, 0.9000, 50.0
     145, "JUFENG              ",   525.00,  1,   37,    1,    1,   1.000010,   3.367500, 1.1000, 0.9000, 1.1000, 0.9000, 50.0
     146, "JUFENG-G            ",    20.00,  2,   37,    1,    1,   1.000000,   7.133300, 1.1000, 0.9000, 1.1000, 0.9000, 50.0
     147, "KENDONG             ",   525.00,  1,   37,    1,    1,   0.995630,   2.521200, 1.1000, 0.9000, 1.1000, 0.9000, 50.0
     148, "KUNYU               ",   525.00,  1,   37,    1,    1,   0.994250,  17.061700, 1.1000, 0.9000, 1.1000, 0.9000, 50.0
     149, "KUNYU-G             ",    20.00,  2,   37,    1,    1,   1.000000,   7.133300, 1.1000, 0.9000, 1.1000, 0.9000, 50.0
     150, "LAICHANG            ",   525.00,  1,   37,    1,    1,   0.998220,   5.659900, 1.1000, 0.9000, 1.1000, 0.9000, 50.0
     151, "LAIWU-G             ",    20.00,  2,   37,    1,    1,   1.000000,   6.808000, 1.1000, 0.9000, 1.1000, 0.9000, 50.0
     152, "LAIYANG             ",   525.00,  1,   37,    1,    1,   0.978390,  16.104900, 1.1000, 0.9000, 1.1000, 0.9000, 50.0
     153, "LAIZHOU             ",   525.00,  1,   37,    1,    1,   0.996540,  17.027400, 1.1000, 0.9000, 1.1000, 0.9000, 50.0
     154, "LAIZHOU-G           ",    20.00,  2,   37,    1,    1,   1.000000,  18.810100, 1.1000, 0.9000, 1.1000, 0.9000, 50.0
     155, "LANLING             ",   525.00,  1,   37,    1,    1,   1.001530,   1.215000, 1.1000, 0.9000, 1.1000, 0.9000, 50.0
     156, "LANLING-G           ",    20.00,  2,   37,    1,    1,   1.000000,   7.133300, 1.1000, 0.9000, 1.1000, 0.9000, 50.0
     157, "LANGYA              ",   525.00,  1,   37,    1,    1,   0.989650,   7.366000, 1.1000, 0.9000, 1.1000, 0.9000, 50.0
     158, "LANGYA-G            ",    20.00,  2,   37,    1,    1,   1.000000,   7.133300, 1.1000, 0.9000, 1.1000, 0.9000, 50.0
     159, "LAOSHAN             ",   525.00,  1,   37,    1,    1,   0.979140,  11.890700, 1.1000, 0.9000, 1.1000, 0.9000, 50.0
     160, "LAOSHAN-G           ",    20.00,  2,   37,    1,    1,   1.000000,   7.133300, 1.1000, 0.9000, 1.1000, 0.9000, 50.0
     161, "LIAOCHANG           ",   525.00,  1,   37,    1,    1,   0.997840,   1.619800, 1.1000, 0.9000, 1.1000, 0.9000, 50.0
     162, "LIAOCHANG-G         ",    20.00,  2,   37,    1,    1,   1.000000,   2.366300, 1.1000, 0.9000, 1.1000, 0.9000, 50.0
     163, "LIAOCHENG           ",   525.00,  1,   37,    1,    1,   0.996260,   1.530000, 1.1000, 0.9000, 1.1000, 0.9000, 50.0
     164, "LIAOCHENG-G         ",    20.00,  2,   37,    1,    1,   1.000000,   7.133300, 1.1000, 0.9000, 1.1000, 0.9000, 50.0
     165, "LIAOCHENGNAN        ",   525.00,  1,   37,    1,    1,   0.993410,   0.567700, 1.1000, 0.9000, 1.1000, 0.9000, 50.0
     166, "LINQU               ",   525.00,  1,   37,    1,    1,   0.995610,   4.084900, 1.1000, 0.9000, 1.1000, 0.9000, 50.0
     167, "LINZI               ",   525.00,  1,   37,    1,    1,   0.982710,   1.978500, 1.1000, 0.9000, 1.1000, 0.9000, 50.0
     168, "LINZI-G             ",    20.00,  2,   37,    1,    1,   1.000000,   7.133300, 1.1000, 0.9000, 1.1000, 0.9000, 50.0
     169, "LINGXIAN            ",   525.00,  1,   37,    1,    1,   0.992690,  -0.016600, 1.1000, 0.9000, 1.1000, 0.9000, 50.0
     170, "LONGSHAN            ",   525.00,  1,   37,    1,    1,   0.991290,  -1.464700, 1.1000, 0.9000, 1.1000, 0.9000, 50.0
     171, "LUZHONG             ",   525.00,  1,   37,    1,    1,   0.993170,   3.765800, 1.1000, 0.9000, 1.1000, 0.9000, 50.0
     172, "LUZHONG-G           ",    20.00,  2,   37,    1,    1,   1.000000,   7.133300, 1.1000, 0.9000, 1.1000, 0.9000, 50.0
     173, "YIMENG-PUMP         ",   525.00,  1,   37,    1,    1,   1.001120,   3.367100, 1.1000, 0.9000, 1.1000, 0.9000, 50.0
     174, "YIMENG-PUMPG        ",    13.00,  2,   37,    1,    1,   1.000000,   4.053900, 1.1000, 0.9000, 1.1000, 0.9000, 50.0
     175, "MIZHOU              ",   525.00,  1,   37,    1,    1,   0.993810,   5.229800, 1.1000, 0.9000, 1.1000, 0.9000, 50.0
     176, "MUPING              ",   525.00,  1,   37,    1,    1,   0.987410,  14.175500, 1.1000, 0.9000, 1.1000, 0.9000, 50.0
     177, "PANLONG             ",   525.00,  1,   37,    1,    1,   0.987680,  -1.905800, 1.1000, 0.9000, 1.1000, 0.9000, 50.0
     178, "QIXIA               ",   525.00,  1,   37,    1,    1,   0.983160,  13.211300, 1.1000, 0.9000, 1.1000, 0.9000, 50.0
     179, "QIXIA-G             ",    20.00,  2,   37,    1,    1,   1.000000,   7.133300, 1.1000, 0.9000, 1.1000, 0.9000, 50.0
     180, "QIAOGUAN            ",   525.00,  1,   37,    1,    1,   0.995180,   4.406500, 1.1000, 0.9000, 1.1000, 0.9000, 50.0
     181, "QUANCHENG           ",   525.00,  1,   37,    1,    1,   0.996400,   1.212000, 1.1000, 0.9000, 1.1000, 0.9000, 50.0
     182, "QUANCHENG-G         ",    20.00,  2,   37,    1,    1,   1.000000,   3.800500, 1.1000, 0.9000, 1.1000, 0.9000, 50.0
     183, "QUANCHNG-UHV        ",  1050.00,  1,   37,    1,    1,   0.996330,   1.187300, 1.1000, 0.9000, 1.1000, 0.9000, 50.0
     184, "RIZHAO              ",   525.00,  1,   37,    1,    1,   0.998580,   4.614800, 1.1000, 0.9000, 1.1000, 0.9000, 50.0
     185, "RIZHAO-G            ",    20.00,  2,   37,    1,    1,   1.000000,   7.133300, 1.1000, 0.9000, 1.1000, 0.9000, 50.0
     186, "RULIN               ",   525.00,  1,   37,    1,    1,   0.994750,  -2.483100, 1.1000, 0.9000, 1.1000, 0.9000, 50.0
     187, "RUNZE               ",   525.00,  1,   37,    1,    1,   0.999220,  -1.343200, 1.1000, 0.9000, 1.1000, 0.9000, 50.0
     188, "RUNZE-G             ",    20.00,  2,   37,    1,    1,   1.000000,  -0.603500, 1.1000, 0.9000, 1.1000, 0.9000, 50.0
     189, "SHOUDIAN            ",   525.00,  1,   37,    1,    1,   0.995590,   9.127500, 1.1000, 0.9000, 1.1000, 0.9000, 50.0
     190, "SHOUDIAN-G          ",    20.00,  2,   37,    1,    1,   1.000000,  10.278600, 1.1000, 0.9000, 1.1000, 0.9000, 50.0
     191, "SHOUGUANG           ",   525.00,  1,   37,    1,    1,   0.987920,   7.402600, 1.1000, 0.9000, 1.1000, 0.9000, 50.0
     192, "SHOUGUANG-G         ",    20.00,  2,   37,    1,    1,   1.000000,   7.133300, 1.1000, 0.9000, 1.1000, 0.9000, 50.0
     193, "TAISHAN-PUMP        ",   525.00,  1,   37,    1,    1,   0.996790,  -3.194300, 1.1000, 0.9000, 1.1000, 0.9000, 50.0
     194, "TAISHAN-PMPG        ",    20.00,  2,   37,    1,    1,   1.000000,   7.133300, 1.1000, 0.9000, 1.1000, 0.9000, 50.0
     195, "WEIFANG             ",   525.00,  1,   37,    1,    1,   0.980900,   5.078100, 1.1000, 0.9000, 1.1000, 0.9000, 50.0
     196, "WENTING             ",   525.00,  1,   37,    1,    1,   0.996010,  -2.413100, 1.1000, 0.9000, 1.1000, 0.9000, 50.0
     197, "WENSHAO             ",   525.00,  1,   37,    1,    1,   0.992960,  -0.623500, 1.1000, 0.9000, 1.1000, 0.9000, 50.0
     198, "WENSHANG            ",   525.00,  1,   37,    1,    1,   0.999530,  -2.034500, 1.1000, 0.9000, 1.1000, 0.9000, 50.0
     199, "XINTAI              ",   525.00,  1,   37,    1,    1,   0.996290,   0.447900, 1.1000, 0.9000, 1.1000, 0.9000, 50.0
     200, "YIMENG              ",   525.00,  1,   37,    1,    1,   1.001300,   2.243500, 1.1000, 0.9000, 1.1000, 0.9000, 50.0
     201, "YINAN               ",   525.00,  1,   37,    1,    1,   1.002160,   5.730100, 1.1000, 0.9000, 1.1000, 0.9000, 50.0
     202, "YINAN-UHV           ",  1050.00,  1,   37,    1,    1,   1.004790,   5.601000, 1.1000, 0.9000, 1.1000, 0.9000, 50.0
     203, "YUNCHENG            ",   525.00,  1,   37,    1,    1,   1.001890,   0.861400, 1.1000, 0.9000, 1.1000, 0.9000, 50.0
     204, "YIDU                ",   525.00,  1,   37,    1,    1,   0.985000,   2.061300, 1.1000, 0.9000, 1.1000, 0.9000, 50.0
     205, "YOUCHENG            ",   525.00,  1,   37,    1,    1,   0.995380,   3.124300, 1.1000, 0.9000, 1.1000, 0.9000, 50.0
     206, "YUNHE               ",   525.00,  1,   37,    1,    1,   0.999950,  -1.773900, 1.1000, 0.9000, 1.1000, 0.9000, 50.0
     207, "YUNHE-G             ",    20.00,  2,   37,    1,    1,   1.000000,  -1.395800, 1.1000, 0.9000, 1.1000, 0.9000, 50.0
     208, "YUNCHENG            ",   525.00,  1,   37,    1,    1,   0.996320,  -2.808600, 1.1000, 0.9000, 1.1000, 0.9000, 50.0
     209, "ZAOZHUANG           ",   525.00,  1,   37,    1,    1,   0.999290,   0.791800, 1.1000, 0.9000, 1.1000, 0.9000, 50.0
     210, "ZAOZHUANG-G         ",    20.00,  2,   37,    1,    1,   1.000000,   1.365200, 1.1000, 0.9000, 1.1000, 0.9000, 50.0
     211, "ZAOZHUANGSHI        ",   525.00,  1,   37,    1,    1,   0.999300,   0.524200, 1.1000, 0.9000, 1.1000, 0.9000, 50.0
     212, "ZAOZHNG-UHV         ",  1050.00,  1,   37,    1,    1,   0.999210,   0.793700, 1.1000, 0.9000, 1.1000, 0.9000, 50.0
     213, "CHANGQING           ",   525.00,  1,   37,    1,    1,   0.989640,  -1.185900, 1.1000, 0.9000, 1.1000, 0.9000, 50.0
     214, "ZIBO                ",   525.00,  1,   37,    1,    1,   0.981660,  -0.082700, 1.1000, 0.9000, 1.1000, 0.9000, 50.0
     215, "ZICHUAN             ",   525.00,  1,   37,    1,    1,   0.996750,  -0.879700, 1.1000, 0.9000, 1.1000, 0.9000, 50.0
     216, "ZOUXIAN             ",   525.00,  1,   37,    1,    1,   1.000760,  -0.271400, 1.1000, 0.9000, 1.1000, 0.9000, 50.0
     217, "ZHOUXIAN-G          ",    20.00,  3,   37,    1,    1,   1.000000,   0.000000, 1.1000, 0.9000, 1.1000, 0.9000, 50.0
     301, "HUANGHUA            ",   525.00,  1,   13,    1,    1,   1.000340,   7.293100, 1.1000, 0.9000, 1.1000, 0.9000, 50.0
     302, "HUANGHUA-G          ",    20.00,  2,   13,    1,    1,   1.000000,   8.152300, 1.1000, 0.9000, 1.1000, 0.9000, 50.0
     303, "XINGTAI-G           ",    20.00,  2,   13,    1,    1,   1.000000,   0.776300, 1.1000, 0.9000, 1.1000, 0.9000, 50.0
     304, "XINAN               ",   525.00,  1,   13,    1,    1,   1.001090,   6.274700, 1.1000, 0.9000, 1.1000, 0.9000, 50.0
     305, "XINAN-G             ",    20.00,  2,   37,    1,    1,   1.000000,   7.133300, 1.1000, 0.9000, 1.1000, 0.9000, 50.0
     306, "XINGTAI-UHV         ",  1050.00,  1,   13,    1,    1,   1.001190,   0.433000, 1.1000, 0.9000, 1.1000, 0.9000, 50.0
     401, "HAIHE-UHV           ",  1050.00,  1,   12,    1,    1,   0.998130,   1.184600, 1.1000, 0.9000, 1.1000, 0.9000, 50.0
     501, "ZHUMADIAN-G         ",    20.00,  2,   41,    1,    1,   1.000000,   0.319200, 1.1000, 0.9000, 1.1000, 0.9000, 50.0
     502, "ZHUMADN-UHV         ",  1050.00,  1,   41,    1,    1,   0.989030,  -0.028300, 1.1000, 0.9000, 1.1000, 0.9000, 50.0
     601, "YINCHUAN-G          ",    20.00,  3,   64,    1,    1,   1.000000,   0.000000, 1.1000, 0.9000, 1.1000, 0.9000, 50.0
     602, "YINCHUAN-CVT        ",   345.00,  1,   64,    1,    1,   0.980920,  -2.337100, 1.1000, 0.9000, 1.1000, 0.9000, 50.0
     701, "MENGDONG-G          ",    20.00,  3,   15,    1,    1,   1.000000,   0.000000, 1.1000, 0.9000, 1.1000, 0.9000, 50.0
     702, "SHANGHAIMIAO        ",    20.00,  3,   15,    1,    1,   1.000000,   0.000000, 1.1000, 0.9000, 1.1000, 0.9000, 50.0
     703, "YIKEZHAO            ",   800.00,  1,   15,    1,    1,   1.005890,  -6.851500, 1.1000, 0.9000, 1.1000, 0.9000, 50.0
     704, "ZHALUTE             ",   525.00,  1,   15,    1,    1,   0.995090,  -6.926300, 1.1000, 0.9000, 1.1000, 0.9000, 50.0
0 / END OF BUS DATA, BEGIN LOAD DATA
       3,    "1", 1,        1,        1,      322,      2.4,        0,        0,        0,       -0,        1,        0
       4,    "1", 1,        1,        1,      500,      184,        0,        0,        0,       -0,        1,        0
       7,    "1", 1,        1,        1,    233.8,       84,        0,        0,        0,       -0,        1,        0
       8,    "1", 1,        1,        1,      522,      176,        0,        0,        0,       -0,        1,        0
      12,    "1", 1,        1,        1,      8.5,       88,        0,        0,        0,       -0,        1,        0
      15,    "1", 1,        1,        1,      320,      153,        0,        0,        0,       -0,        1,        0
      16,    "1", 1,        1,        1,      329,     32.3,        0,        0,        0,       -0,        1,        0
      18,    "1", 1,        1,        1,      158,       30,        0,        0,        0,       -0,        1,        0
      20,    "1", 1,        1,        1,      680,      103,        0,        0,        0,       -0,        1,        0
      21,    "1", 1,        1,        1,      274,      115,        0,        0,        0,       -0,        1,        0
      23,    "1", 1,        1,        1,    247.5,     84.6,        0,        0,        0,       -0,        1,        0
      24,    "1", 1,        1,        1,    308.6,    -92.2,        0,        0,        0,       -0,        1,        0
      25,    "1", 1,        1,        1,      224,     47.2,        0,        0,        0,       -0,        1,        0
      26,    "1", 1,        1,        1,      139,       17,        0,        0,        0,       -0,        1,        0
      27,    "1", 1,        1,        1,      281,     75.5,        0,        0,        0,       -0,        1,        0
      28,    "1", 1,        1,        1,      206,     27.6,        0,        0,        0,       -0,        1,        0
      29,    "1", 1,        1,        1,    283.5,     26.9,        0,        0,        0,       -0,        1,        0
      31,    "1", 1,        1,        1,      9.2,      4.6,        0,        0,        0,       -0,        1,        0
      39,    "1", 1,        1,        1,     1104,      250,        0,        0,        0,       -0,        1,        0
     101,    "1", 1,       37,        1,    379.2,      152,        0,        0,        0,       -0,        1,        0
     102,    "1", 1,       37,        1,    786.9,    220.1,        0,        0,        0,       -0,        1,        0
     105,    "1", 1,       37,        1,    372.9,    109.9,        0,        0,        0,       -0,        1,        0
     106,    "1", 1,       37,        1,     1289,    305.6,        0,        0,        0,       -0,        1,        0
     108,    "1", 1,       37,        1,      126,    165.6,        0,        0,        0,       -0,        1,        0
     110,    "1", 1,       37,        1,    886.4,    141.7,        0,        0,        0,       -0,        1,        0
     111,    "1", 1,       37,        1,    732.7,    170.1,        0,        0,        0,       -0,        1,        0
     112,    "1", 1,       37,        1,      841,    105.8,        0,        0,        0,       -0,        1,        0
     114,    "1", 1,       37,        1,    411.6,      160,        0,        0,        0,       -0,        1,        0
     117,    "1", 1,       37,        1,    566.2,    118.8,        0,        0,        0,       -0,        1,        0
     118,    "1", 1,       37,        1,     1409,    243.9,        0,        0,        0,       -0,        1,        0
     122,    "1", 1,       37,        1,    350.4,    104.8,        0,        0,        0,       -0,        1,        0
     123,    "1", 1,       37,        1,    454.3,     15.7,        0,        0,        0,       -0,        1,        0
     124,    "1", 1,       37,        1,     1229,    330.9,        0,        0,        0,       -0,        1,        0
     127,    "1", 1,       37,        1,    620.5,    182.8,        0,        0,        0,       -0,        1,        0
     128,    "1", 1,       37,        1,    903.3,    378.3,        0,        0,        0,       -0,        1,        0
     133,    "1", 1,       37,        1,     3000,      700,        0,        0,        0,       -0,        1,        0
     136,    "1", 1,       37,        1,    959.8,    106.2,        0,        0,        0,       -0,        1,        0
     137,    "1", 1,       37,        1,    549.3,    120.3,        0,        0,        0,       -0,        1,        0
     138,    "1", 1,       37,        1,    729.7,     59.3,        0,        0,        0,       -0,        1,        0
     140,    "1", 1,       37,        1,       36,       12,        0,        0,        0,       -0,        1,        0
     142,    "1", 1,       37,        1,      990,    163.6,        0,        0,        0,       -0,        1,        0
     143,    "1", 1,       37,        1,    763.2,    160.6,        0,        0,        0,       -0,        1,        0
     144,    "1", 1,       37,        1,    843.1,    198.6,        0,        0,        0,       -0,        1,        0
     145,    "1", 1,       37,        1,    571.2,    188.3,        0,        0,        0,       -0,        1,        0
     147,    "1", 1,       37,        1,    423.3,     92.1,        0,        0,        0,       -0,        1,        0
     148,    "1", 1,       37,        1,    253.1,    139.4,        0,        0,        0,       -0,        1,        0
     152,    "1", 1,       37,        1,     1825,    367.1,        0,        0,        0,       -0,        1,        0
     155,    "1", 1,       37,        1,     1022,    175.2,        0,        0,        0,       -0,        1,        0
     157,    "1", 1,       37,        1,    526.9,      155,        0,        0,        0,       -0,        1,        0
     159,    "1", 1,       37,        1,     2107,    197.5,        0,        0,        0,       -0,        1,        0
     163,    "1", 1,       37,        1,    373.3,    197.8,        0,        0,        0,       -0,        1,        0
     165,    "1", 1,       37,        1,    405.7,    267.7,        0,        0,        0,       -0,        1,        0
     166,    "1", 1,       37,        1,    534.9,     58.4,        0,        0,        0,       -0,        1,        0
     167,    "1", 1,       37,        1,     1226,    379.2,        0,        0,        0,       -0,        1,        0
     169,    "1", 1,       37,        1,     1065,      104,        0,        0,        0,       -0,        1,        0
     170,    "1", 1,       37,        1,     1017,    149.3,        0,        0,        0,       -0,        1,        0
     171,    "1", 1,       37,        1,     1648,    461.4,        0,        0,        0,       -0,        1,        0
     175,    "1", 1,       37,        1,    912.6,    188.4,        0,        0,        0,       -0,        1,        0
     176,    "1", 1,       37,        1,    927.9,      113,        0,        0,        0,       -0,        1,        0
     177,    "1", 1,       37,        1,    881.4,    134.1,        0,        0,        0,       -0,        1,        0
     178,    "1", 1,       37,        1,     1025,      205,        0,        0,        0,       -0,        1,        0
     180,    "1", 1,       37,        1,    592.8,     11.6,        0,        0,        0,       -0,        1,        0
     183,    "1", 1,       37,        1,     3000,     1100,        0,        0,        0,       -0,        1,        0
     184,    "1", 1,       37,        1,      821,    165.6,        0,        0,        0,       -0,        1,        0
     184,    "2", 1,       37,        1,    155.6,     46.4,        0,        0,        0,       -0,        1,        0
     186,    "1", 1,       37,        1,      636,    156.4,        0,        0,        0,       -0,        1,        0
     191,    "1", 1,       37,        1,     1887,    597.6,        0,        0,        0,       -0,        1,        0
     193,    "1", 1,       37,        1,     1298,    244.4,        0,        0,        0,       -0,        1,        0
     195,    "1", 1,       37,        1,    846.3,    270.4,        0,        0,        0,       -0,        1,        0
     196,    "1", 1,       37,        1,      849,    203.6,        0,        0,        0,       -0,        1,        0
     197,    "1", 1,       37,        1,     1235,    226.2,        0,        0,        0,       -0,        1,        0
     198,    "1", 1,       37,        1,      413,    137.9,        0,        0,        0,       -0,        1,        0
     199,    "1", 1,       37,        1,    844.5,    193.1,        0,        0,        0,       -0,        1,        0
     200,    "1", 1,       37,        1,     1399,    172.3,        0,        0,        0,       -0,        1,        0
     201,    "1", 1,       37,        1,     1122,    378.2,        0,        0,        0,       -0,        1,        0
     203,    "1", 1,       37,        1,    161.4,     63.4,        0,        0,        0,       -0,        1,        0
     204,    "1", 1,       37,        1,     1461,    243.3,        0,        0,        0,       -0,        1,        0
     205,    "1", 1,       37,        1,      568,      135,        0,        0,        0,       -0,        1,        0
     208,    "1", 1,       37,        1,     1095,    263.4,        0,        0,        0,       -0,        1,        0
     211,    "1", 1,       37,        1,    314.9,    135.8,        0,        0,        0,       -0,        1,        0
     212,    "1", 1,       37,        1,     1900,      500,        0,        0,        0,       -0,        1,        0
     213,    "1", 1,       37,        1,    540.2,    171.3,        0,        0,        0,       -0,        1,        0
     214,    "1", 1,       37,        1,     1056,    252.3,        0,        0,        0,       -0,        1,        0
     215,    "1", 1,       37,        1,    705.5,    110.7,        0,        0,        0,       -0,        1,        0
0 / END OF LOAD DATA, BEGIN FIXED SHUNT DATA
     107,    "1", 1,     0.000000, -1100.000000
     121,    "1", 1,     0.000000,  -500.000000
     125,    "1", 1,     0.000000,  2000.000000
     126,    "1", 1,     0.000000,  2000.000000
     142,    "1", 1,     0.000000,  2000.000000
     201,    "1", 1,     0.000000,  2000.000000
     202,    "1", 1,     0.000000,  2000.000000
     306,    "1", 1,     0.000000,  -200.000000
     703,    "1", 1,     0.000000,  4000.000000
     704,    "1", 1,     0.000000,  4000.000000
0 / END OF FIXED SHUNT DATA, BEGIN GENERATOR DATA
      30,    "1",   250.000000,   144.919000,  1000.000000, -1000.000000, 1.047500,        0,  1000.0000,  0.000000,  0.002000, 0.00, 0.00, 1.00, 1,100.00,   300.000000,     0.000000, 1, 1.000000, 0, 0.000000, 0, 0.000000, 0, 0.000000, 0, 0.00, 0
      31,    "1",   572.835000,   207.036000,  9999.000000, -9999.000000, 0.982000,        0,  1000.0000,  0.000000,  0.002000, 0.00, 0.00, 1.00, 1,100.00,   600.000000,     0.000000, 1, 1.000000, 0, 0.000000, 0, 0.000000, 0, 0.000000, 0, 0.00, 0
      32,    "1",   650.000000,   205.731000,  1000.000000, -1000.000000, 0.983100,        0,  1000.0000,  0.000000,  0.002000, 0.00, 0.00, 1.00, 1,100.00,   700.000000,     0.000000, 1, 1.000000, 0, 0.000000, 0, 0.000000, 0, 0.000000, 0, 0.00, 0
      33,    "1",   632.000000,   108.936000,  1000.000000, -1000.000000, 0.997200,        0,  1000.0000,  0.000000,  0.002000, 0.00, 0.00, 1.00, 1,100.00,   700.000000,     0.000000, 1, 1.000000, 0, 0.000000, 0, 0.000000, 0, 0.000000, 0, 0.00, 0
      34,    "1",   508.000000,   166.986000,  1000.000000, -1000.000000, 1.012300,        0,  1000.0000,  0.000000,  0.002000, 0.00, 0.00, 1.00, 1,100.00,   600.000000,     0.000000, 1, 1.000000, 0, 0.000000, 0, 0.000000, 0, 0.000000, 0, 0.00, 0
      35,    "1",   650.000000,   211.112000,  1000.000000, -1000.000000, 1.049300,        0,  1000.0000,  0.000000,  0.002000, 0.00, 0.00, 1.00, 1,100.00,   700.000000,     0.000000, 1, 1.000000, 0, 0.000000, 0, 0.000000, 0, 0.000000, 0, 0.00, 0
      38,    "1",   830.000000,    22.659000,  1000.000000, -1000.000000, 1.026500,        0,  1000.0000,  0.000000,  0.002000, 0.00, 0.00, 1.00, 1,100.00,   900.000000,     0.000000, 1, 1.000000, 0, 0.000000, 0, 0.000000, 0, 0.000000, 0, 0.00, 0
      39,    "1",  1000.000000,    87.883000,  1000.000000, -1000.000000, 1.030000,        0, 10000.0000,  0.000000,  0.000200, 0.00, 0.00, 1.00, 1,100.00,  1100.000000,     0.000000, 1, 1.000000, 0, 0.000000, 0, 0.000000, 0, 0.000000, 0, 0.00, 0
     104,    "1",  1000.000000,    78.846000,  9999.000000, -9999.000000, 1.000000,        0,  1120.0000,  0.000000,  0.150000, 0.00, 0.00, 1.00, 1,100.00,  9999.000000, -9999.000000, 1, 1.000000, 0, 0.000000, 0, 0.000000, 0, 0.000000, 0, 0.00, 0
     109,    "1",  1800.000000,   381.300000,  9999.000000, -9999.000000, 1.000000,        0,  2000.0000,  0.000000,  0.150000, 0.00, 0.00, 1.00, 1,100.00,  9999.000000,     0.000000, 1, 1.000000, 0, 0.000000, 0, 0.000000, 0, 0.000000, 0, 0.00, 0
     113,    "1",  1350.000000,   -97.940000,  9999.000000, -9999.000000, 1.000000,        0,  1700.0000,  0.000000,  0.150000, 0.00, 0.00, 1.00, 1,100.00,  9999.000000,     0.000000, 1, 1.000000, 0, 0.000000, 0, 0.000000, 0, 0.000000, 0, 0.00, 0
     116,    "1",  1000.000000,   195.673000,  9999.000000, -9999.000000, 1.000000,        0,  1120.0000,  0.000000,  0.150000, 0.00, 0.00, 1.00, 1,100.00,  9999.000000,     0.000000, 1, 1.000000, 0, 0.000000, 0, 0.000000, 0, 0.000000, 0, 0.00, 0
     119,    "1",   500.000000,  -117.423000,  9999.000000, -9999.000000, 1.000000,        0,   744.0000,  0.000000,  0.150000, 0.00, 0.00, 1.00, 1,100.00,  9999.000000,     0.000000, 1, 1.000000, 0, 0.000000, 0, 0.000000, 0, 0.000000, 0, 0.00, 0
     130,    "1",  1520.000000,  1672.750000,  9999.000000, -9999.000000, 1.000000,        0,  1800.0000,  0.000000,  0.150000, 0.00, 0.00, 1.00, 1,100.00,  9999.000000,     0.000000, 1, 1.000000, 0, 0.000000, 0, 0.000000, 0, 0.000000, 0, 0.00, 0
     132,    "1",  1000.000000,   637.416000,  9999.000000, -9999.000000, 1.000000,        0,  1120.0000,  0.000000,  0.150000, 0.00, 0.00, 1.00, 1,100.00,  9999.000000,     0.000000, 1, 1.000000, 0, 0.000000, 0, 0.000000, 0, 0.000000, 0, 0.00, 0
     135,    "1",  1500.000000,   172.853000,  9999.000000, -9999.000000, 1.000000,        0,  2700.0000,  0.000000,  0.150000, 0.00, 0.00, 1.00, 1,100.00,  9999.000000,     0.000000, 1, 1.000000, 0, 0.000000, 0, 0.000000, 0, 0.000000, 0, 0.00, 0
     139,    "1",  1655.000000,   -97.940000,  9999.000000, -9999.000000, 1.000000,        0,  1700.0000,  0.000000,  0.150000, 0.00, 0.00, 1.00, 1,100.00,  9999.000000,     0.000000, 1, 1.000000, 0, 0.000000, 0, 0.000000, 0, 0.000000, 0, 0.00, 0
     141,    "1",   660.000000,   -21.164000,  9999.000000, -9999.000000, 1.000000,        0,  1000.0000,  0.000000,  0.150000, 0.00, 0.00, 1.00, 1,100.00,  9999.000000,     0.000000, 1, 1.000000, 0, 0.000000, 0, 0.000000, 0, 0.000000, 0, 0.00, 0
     146,    "1",  1200.000000,   -97.940000,  9999.000000, -9999.000000, 1.000000,        0,  1700.0000,  0.000000,  0.150000, 0.00, 0.00, 1.00, 1,100.00,  9999.000000,     0.000000, 1, 1.000000, 0, 0.000000, 0, 0.000000, 0, 0.000000, 0, 0.00, 0
     149,    "1",   640.000000,  -117.423000,  9999.000000, -9999.000000, 1.000000,        0,   744.0000,  0.000000,  0.150000, 0.00, 0.00, 1.00, 1,100.00,  9999.000000,     0.000000, 1, 1.000000, 0, 0.000000, 0, 0.000000, 0, 0.000000, 0, 0.00, 0
     151,    "1",  1500.000000,   198.320000,  9999.000000, -9999.000000, 1.000000,        0,  2240.0000,  0.000000,  0.150000, 0.00, 0.00, 1.00, 1,100.00,  9999.000000,     0.000000, 1, 1.000000, 0, 0.000000, 0, 0.000000, 0, 0.000000, 0, 0.00, 0
     154,    "1",  1500.000000,   394.711000,  9999.000000, -9999.000000, 1.000000,        0,  1700.0000,  0.000000,  0.150000, 0.00, 0.00, 1.00, 1,100.00,  9999.000000,     0.000000, 1, 1.000000, 0, 0.000000, 0, 0.000000, 0, 0.000000, 0, 0.00, 0
     156,    "1",   570.000000,  -117.423000,  9999.000000, -9999.000000, 1.000000,        0,   744.0000,  0.000000,  0.150000, 0.00, 0.00, 1.00, 1,100.00,  9999.000000,     0.000000, 1, 1.000000, 0, 0.000000, 0, 0.000000, 0, 0.000000, 0, 0.00, 0
     158,    "1",   895.000000,   637.416000,  9999.000000, -9999.000000, 1.000000,        0,  1120.0000,  0.000000,  0.150000, 0.00, 0.00, 1.00, 1,100.00,  9999.000000,     0.000000, 1, 1.000000, 0, 0.000000, 0, 0.000000, 0, 0.000000, 0, 0.00, 0
     160,    "1",   940.000000,   637.416000,  9999.000000, -9999.000000, 1.000000,        0,  1120.0000,  0.000000,  0.150000, 0.00, 0.00, 1.00, 1,100.00,  9999.000000,     0.000000, 1, 1.000000, 0, 0.000000, 0, 0.000000, 0, 0.000000, 0, 0.00, 0
     162,    "1",  1300.000000,   224.936000,  9999.000000, -9999.000000, 1.000000,        0,  1500.0000,  0.000000,  0.150000, 0.00, 0.00, 1.00, 1,100.00,  9999.000000,     0.000000, 1, 1.000000, 0, 0.000000, 0, 0.000000, 0, 0.000000, 0, 0.00, 0
     164,    "1",  1500.000000,   -97.940000,  9999.000000, -9999.000000, 1.000000,        0,  1700.0000,  0.000000,  0.150000, 0.00, 0.00, 1.00, 1,100.00,  9999.000000,     0.000000, 1, 1.000000, 0, 0.000000, 0, 0.000000, 0, 0.000000, 0, 0.00, 0
     168,    "1",   870.000000,   637.416000,  9999.000000, -9999.000000, 1.000000,        0,  1120.0000,  0.000000,  0.150000, 0.00, 0.00, 1.00, 1,100.00,  9999.000000,     0.000000, 1, 1.000000, 0, 0.000000, 0, 0.000000, 0, 0.000000, 0, 0.00, 0
     172,    "1",   660.000000,   637.416000,  9999.000000, -9999.000000, 1.000000,        0,  1120.0000,  0.000000,  0.150000, 0.00, 0.00, 1.00, 1,100.00,  9999.000000,     0.000000, 1, 1.000000, 0, 0.000000, 0, 0.000000, 0, 0.000000, 0, 0.00, 0
     174,    "1",  1200.000000,  -104.401000,  9999.000000, -9999.000000, 1.000000,        0,  1500.0000,  0.000000,  0.150000, 0.00, 0.00, 1.00, 1,100.00,  9999.000000,     0.000000, 1, 1.000000, 0, 0.000000, 0, 0.000000, 0, 0.000000, 0, 0.00, 0
     179,    "1",  1500.000000,   -97.940000,  9999.000000, -9999.000000, 1.000000,        0,  1700.0000,  0.000000,  0.150000, 0.00, 0.00, 1.00, 1,100.00,  9999.000000,     0.000000, 1, 1.000000, 0, 0.000000, 0, 0.000000, 0, 0.000000, 0, 0.00, 0
     182,    "1",  1500.000000,   461.368000,  9999.000000, -9999.000000, 1.000000,        0,  1700.0000,  0.000000,  0.150000, 0.00, 0.00, 1.00, 1,100.00,  9999.000000,     0.000000, 1, 1.000000, 0, 0.000000, 0, 0.000000, 0, 0.000000, 0, 0.00, 0
     185,    "1",  1000.000000,   637.416000,  9999.000000, -9999.000000, 1.000000,        0,  1120.0000,  0.000000,  0.150000, 0.00, 0.00, 1.00, 1,100.00,  9999.000000,     0.000000, 1, 1.000000, 0, 0.000000, 0, 0.000000, 0, 0.000000, 0, 0.00, 0
     188,    "1",  1290.000000,    86.563000,  9999.000000, -9999.000000, 1.000000,        0,  1500.0000,  0.000000,  0.150000, 0.00, 0.00, 1.00, 1,100.00,  9999.000000,     0.000000, 1, 1.000000, 0, 0.000000, 0, 0.000000, 0, 0.000000, 0, 0.00, 0
     190,    "1",  2000.000000,   461.429000,  9999.000000, -9999.000000, 1.000000,        0,  2240.0000,  0.000000,  0.150000, 0.00, 0.00, 1.00, 1,100.00,  9999.000000,     0.000000, 1, 1.000000, 0, 0.000000, 0, 0.000000, 0, 0.000000, 0, 0.00, 0
     192,    "1",   600.000000,  -117.423000,  9999.000000, -9999.000000, 1.000000,        0,   744.0000,  0.000000,  0.150000, 0.00, 0.00, 1.00, 1,100.00,  9999.000000,     0.000000, 1, 1.000000, 0, 0.000000, 0, 0.000000, 0, 0.000000, 0, 0.00, 0
     194,    "1",   700.000000,   637.416000,  9999.000000, -9999.000000, 1.000000,        0,  1120.0000,  0.000000,  0.150000, 0.00, 0.00, 1.00, 1,100.00,  9999.000000,     0.000000, 1, 1.000000, 0, 0.000000, 0, 0.000000, 0, 0.000000, 0, 0.00, 0
     207,    "1",   660.000000,     7.082000,  9999.000000, -9999.000000, 1.000000,        0,   744.0000,  0.000000,  0.150000, 0.00, 0.00, 1.00, 1,100.00,  9999.000000,     0.000000, 1, 1.000000, 0, 0.000000, 0, 0.000000, 0, 0.000000, 0, 0.00, 0
     210,    "1",  1000.000000,    76.099000,  9999.000000, -9999.000000, 1.000000,        0,  1120.0000,  0.000000,  0.150000, 0.00, 0.00, 1.00, 1,100.00,  9999.000000,     0.000000, 1, 1.000000, 0, 0.000000, 0, 0.000000, 0, 0.000000, 0, 0.00, 0
     217,    "1",   474.005000,   -74.886000,  9999.000000, -9999.000000, 1.000000,        0,  1120.0000,  0.000000,  0.150000, 0.00, 0.00, 1.00, 1,100.00,  9999.000000,     0.000000, 1, 1.000000, 0, 0.000000, 0, 0.000000, 0, 0.000000, 0, 0.00, 0
     302,    "1",  1500.000000,   -22.915000,  9999.000000, -9999.000000, 1.000000,        0,  1700.0000,  0.000000,  0.150000, 0.00, 0.00, 1.00, 1,100.00,  9999.000000,     0.000000, 1, 1.000000, 0, 0.000000, 0, 0.000000, 0, 0.000000, 0, 0.00, 0
     303,    "1",   600.000000,  -117.423000,  9999.000000, -9999.000000, 1.000000,        0,   744.0000,  0.000000,  0.150000, 0.00, 0.00, 1.00, 1,100.00,  9999.000000,     0.000000, 1, 1.000000, 0, 0.000000, 0, 0.000000, 0, 0.000000, 0, 0.00, 0
     305,    "1",  1500.000000,   -97.940000,  9999.000000, -9999.000000, 1.000000,        0,  1700.0000,  0.000000,  0.150000, 0.00, 0.00, 1.00, 1,100.00,  9999.000000,     0.000000, 1, 1.000000, 0, 0.000000, 0, 0.000000, 0, 0.000000, 0, 0.00, 0
     501,    "1",   600.000000,  1098.938000,  9999.000000, -9999.000000, 1.000000,        0,   744.0000,  0.000000,  0.150000, 0.00, 0.00, 1.00, 1,100.00,  9999.000000,     0.000000, 1, 1.000000, 0, 0.000000, 0, 0.000000, 0, 0.000000, 0, 0.00, 0
     601,    "1",  4000.000000,  1989.618000,  9999.000000, -9999.000000, 1.000000,        0,  4480.0000,  0.000000,  0.150000, 0.00, 0.00, 1.00, 1,100.00,  9999.000000,     0.000000, 1, 1.000000, 0, 0.000000, 0, 0.000000, 0, 0.000000, 0, 0.00, 0
     701,    "1",  8000.020000,   811.732000,  9999.000000, -9999.000000, 1.000000,        0,  8960.0000,  0.000000,  0.150000, 0.00, 0.00, 1.00, 1,100.00,  9999.000000, -9999.000000, 1, 1.000000, 0, 0.000000, 0, 0.000000, 0, 0.000000, 0, 0.00, 0
     702,    "1",  7999.998000,    86.207000,  9999.000000, -9999.000000, 1.000000,        0,  8960.0000,  0.000000,  0.150000, 0.00, 0.00, 1.00, 1,100.00,  9999.000000, -9999.000000, 1, 1.000000, 0, 0.000000, 0, 0.000000, 0, 0.000000, 0, 0.00, 0
      36,    "1",   560.000000,   100.438000,     0.000000,     0.000000, 1.063500,        0,   900.0000,  0.000000,  0.002000, 0.00, 0.00, 1.00, 1,100.00,   600.000000,     0.000000, 1, 1.000000, 0, 0.000000, 0, 0.000000, 0, 0.000000, 2, 1.00, 1
      37,    "1",   540.000000,     0.647000,     0.000000,     0.000000, 1.027800,        0,   840.0000,  0.000000,  0.002000, 0.00, 0.00, 1.00, 1,100.00,   600.000000,     0.000000, 1, 1.000000, 0, 0.000000, 0, 0.000000, 0, 0.000000, 2, 1.00, 1
0 / END OF GENERATOR DATA, BEGIN TRANSMISSION LINE DATA
       1,        2,    "1",     0.003500,    0.041100,     0.698700,      0.000,      0.000,      0.000,     0.000000,     0.000000,     0.000000,     0.000000, 1, 1,   0.00,    1,  1.000,    0,  0.000,    0,  0.000,    0,  0.000
       1,       39,    "1",     0.001000,    0.025000,     0.750000,      0.000,      0.000,      0.000,     0.000000,     0.000000,     0.000000,     0.000000, 1, 1,   0.00,    1,  1.000,    0,  0.000,    0,  0.000,    0,  0.000
       2,        3,    "1",     0.001300,    0.015100,     0.257200,      0.000,      0.000,      0.000,     0.000000,     0.000000,     0.000000,     0.000000, 1, 1,   0.00,    1,  1.000,    0,  0.000,    0,  0.000,    0,  0.000
       2,       25,    "1",     0.007000,    0.008600,     0.146000,      0.000,      0.000,      0.000,     0.000000,     0.000000,     0.000000,     0.000000, 1, 1,   0.00,    1,  1.000,    0,  0.000,    0,  0.000,    0,  0.000
       3,        4,    "1",     0.001300,    0.021300,     0.221400,      0.000,      0.000,      0.000,     0.000000,     0.000000,     0.000000,     0.000000, 1, 1,   0.00,    1,  1.000,    0,  0.000,    0,  0.000,    0,  0.000
       3,       18,    "1",     0.001100,    0.013300,     0.213800,      0.000,      0.000,      0.000,     0.000000,     0.000000,     0.000000,     0.000000, 1, 1,   0.00,    1,  1.000,    0,  0.000,    0,  0.000,    0,  0.000
       4,        5,    "1",     0.000800,    0.012800,     0.134200,      0.000,      0.000,      0.000,     0.000000,     0.000000,     0.000000,     0.000000, 1, 1,   0.00,    1,  1.000,    0,  0.000,    0,  0.000,    0,  0.000
       4,       14,    "1",     0.000800,    0.012900,     0.138200,      0.000,      0.000,      0.000,     0.000000,     0.000000,     0.000000,     0.000000, 1, 1,   0.00,    1,  1.000,    0,  0.000,    0,  0.000,    0,  0.000
       5,        6,    "1",     0.000200,    0.002600,     0.043400,      0.000,      0.000,      0.000,     0.000000,     0.000000,     0.000000,     0.000000, 1, 1,   0.00,    1,  1.000,    0,  0.000,    0,  0.000,    0,  0.000
       5,        8,    "1",     0.000800,    0.011200,     0.147600,      0.000,      0.000,      0.000,     0.000000,     0.000000,     0.000000,     0.000000, 1, 1,   0.00,    1,  1.000,    0,  0.000,    0,  0.000,    0,  0.000
       6,        7,    "1",     0.000600,    0.009200,     0.113000,      0.000,      0.000,      0.000,     0.000000,     0.000000,     0.000000,     0.000000, 1, 1,   0.00,    1,  1.000,    0,  0.000,    0,  0.000,    0,  0.000
       6,       11,    "1",     0.000700,    0.008200,     0.138900,      0.000,      0.000,      0.000,     0.000000,     0.000000,     0.000000,     0.000000, 1, 1,   0.00,    1,  1.000,    0,  0.000,    0,  0.000,    0,  0.000
       7,        8,    "1",     0.000400,    0.004600,     0.078000,      0.000,      0.000,      0.000,     0.000000,     0.000000,     0.000000,     0.000000, 1, 1,   0.00,    1,  1.000,    0,  0.000,    0,  0.000,    0,  0.000
       8,        9,    "1",     0.002300,    0.036300,     0.380400,      0.000,      0.000,      0.000,     0.000000,     0.000000,     0.000000,     0.000000, 1, 1,   0.00,    1,  1.000,    0,  0.000,    0,  0.000,    0,  0.000
       9,       39,    "1",     0.001000,    0.025000,     1.200000,      0.000,      0.000,      0.000,     0.000000,     0.000000,     0.000000,     0.000000, 1, 1,   0.00,    1,  1.000,    0,  0.000,    0,  0.000,    0,  0.000
      10,       11,    "1",     0.000400,    0.004300,     0.072900,      0.000,      0.000,      0.000,     0.000000,     0.000000,     0.000000,     0.000000, 1, 1,   0.00,    1,  1.000,    0,  0.000,    0,  0.000,    0,  0.000
      10,       13,    "1",     0.000400,    0.004300,     0.072900,      0.000,      0.000,      0.000,     0.000000,     0.000000,     0.000000,     0.000000, 1, 1,   0.00,    1,  1.000,    0,  0.000,    0,  0.000,    0,  0.000
      13,       14,    "1",     0.000900,    0.010100,     0.172300,      0.000,      0.000,      0.000,     0.000000,     0.000000,     0.000000,     0.000000, 1, 1,   0.00,    1,  1.000,    0,  0.000,    0,  0.000,    0,  0.000
      14,       15,    "1",     0.001800,    0.021700,     0.366000,      0.000,      0.000,      0.000,     0.000000,     0.000000,     0.000000,     0.000000, 1, 1,   0.00,    1,  1.000,    0,  0.000,    0,  0.000,    0,  0.000
      15,       16,    "1",     0.000900,    0.009400,     0.171000,      0.000,      0.000,      0.000,     0.000000,     0.000000,     0.000000,     0.000000, 1, 1,   0.00,    1,  1.000,    0,  0.000,    0,  0.000,    0,  0.000
      16,       17,    "1",     0.000700,    0.008900,     0.134200,      0.000,      0.000,      0.000,     0.000000,     0.000000,     0.000000,     0.000000, 1, 1,   0.00,    1,  1.000,    0,  0.000,    0,  0.000,    0,  0.000
      16,       19,    "1",     0.001600,    0.019500,     0.304000,      0.000,      0.000,      0.000,     0.000000,     0.000000,     0.000000,     0.000000, 1, 1,   0.00,    1,  1.000,    0,  0.000,    0,  0.000,    0,  0.000
      16,       21,    "1",     0.000800,    0.013500,     0.254800,      0.000,      0.000,      0.000,     0.000000,     0.000000,     0.000000,     0.000000, 1, 1,   0.00,    1,  1.000,    0,  0.000,    0,  0.000,    0,  0.000
      16,       24,    "1",     0.000300,    0.005900,     0.068000,      0.000,      0.000,      0.000,     0.000000,     0.000000,     0.000000,     0.000000, 1, 1,   0.00,    1,  1.000,    0,  0.000,    0,  0.000,    0,  0.000
      17,       18,    "1",     0.000700,    0.008200,     0.131900,      0.000,      0.000,      0.000,     0.000000,     0.000000,     0.000000,     0.000000, 1, 1,   0.00,    1,  1.000,    0,  0.000,    0,  0.000,    0,  0.000
      17,       27,    "1",     0.001300,    0.017300,     0.321600,      0.000,      0.000,      0.000,     0.000000,     0.000000,     0.000000,     0.000000, 1, 1,   0.00,    1,  1.000,    0,  0.000,    0,  0.000,    0,  0.000
      21,       22,    "1",     0.000800,    0.014000,     0.256500,      0.000,      0.000,      0.000,     0.000000,     0.000000,     0.000000,     0.000000, 1, 1,   0.00,    1,  1.000,    0,  0.000,    0,  0.000,    0,  0.000
      22,       23,    "1",     0.000600,    0.009600,     0.184600,      0.000,      0.000,      0.000,     0.000000,     0.000000,     0.000000,     0.000000, 1, 1,   0.00,    1,  1.000,    0,  0.000,    0,  0.000,    0,  0.000
      23,       24,    "1",     0.002200,    0.035000,     0.361000,      0.000,      0.000,      0.000,     0.000000,     0.000000,     0.000000,     0.000000, 1, 1,   0.00,    1,  1.000,    0,  0.000,    0,  0.000,    0,  0.000
      25,       26,    "1",     0.003200,    0.032300,     0.513000,      0.000,      0.000,      0.000,     0.000000,     0.000000,     0.000000,     0.000000, 1, 1,   0.00,    1,  1.000,    0,  0.000,    0,  0.000,    0,  0.000
      26,       27,    "1",     0.001400,    0.014700,     0.239600,      0.000,      0.000,      0.000,     0.000000,     0.000000,     0.000000,     0.000000, 1, 1,   0.00,    1,  1.000,    0,  0.000,    0,  0.000,    0,  0.000
      26,       28,    "1",     0.004300,    0.047400,     0.780200,      0.000,      0.000,      0.000,     0.000000,     0.000000,     0.000000,     0.000000, 1, 1,   0.00,    1,  1.000,    0,  0.000,    0,  0.000,    0,  0.000
      26,       29,    "1",     0.005700,    0.062500,     1.029000,      0.000,      0.000,      0.000,     0.000000,     0.000000,     0.000000,     0.000000, 1, 1,   0.00,    1,  1.000,    0,  0.000,    0,  0.000,    0,  0.000
      28,       29,    "1",     0.001400,    0.015100,     0.249000,      0.000,      0.000,      0.000,     0.000000,     0.000000,     0.000000,     0.000000, 1, 1,   0.00,    1,  1.000,    0,  0.000,    0,  0.000,    0,  0.000
     101,      105,    "1",     0.000220,    0.004980,     0.576260,   3964.660,      0.000,      0.000,     0.000000,     0.000000,     0.000000,     0.000000, 1, 1,  50.00,    1,  1.000,    0,  0.000,    0,  0.000,    0,  0.000
     101,      112,    "1",     0.000560,    0.005600,     0.618300,   2582.490,      0.000,      0.000,     0.000000,     0.000000,     0.000000,     0.000000, 1, 1,  55.00,    1,  1.000,    0,  0.000,    0,  0.000,    0,  0.000
     134,      101,    "1",     0.000290,    0.003050,     0.337960,   2582.490,      0.000,      0.000,     0.000000,     0.000000,     0.000000,     0.000000, 1, 1,  30.00,    1,  1.000,    0,  0.000,    0,  0.000,    0,  0.000
     102,      117,    "1",     0.000240,    0.005480,     0.633880,   3964.660,      0.000,      0.000,     0.000000,     0.000000,     0.000000,     0.000000, 1, 1,  55.00,    1,  1.000,    0,  0.000,    0,  0.000,    0,  0.000
     102,      117,    "2",     0.000240,    0.005480,     0.633880,   3964.660,      0.000,      0.000,     0.000000,     0.000000,     0.000000,     0.000000, 1, 1,  55.00,    1,  1.000,    0,  0.000,    0,  0.000,    0,  0.000
     102,      205,    "1",     0.000420,    0.005910,     0.732700,      0.000,      0.000,      0.000,     0.000000,     0.000000,     0.000000,     0.000000, 1, 1,   1.00,    1,  1.000,    0,  0.000,    0,  0.000,    0,  0.000
     215,      102,    "1",     0.000710,    0.011770,     1.394840,   3073.520,      0.000,      0.000,     0.000000,     0.000000,     0.000000,     0.000000, 1, 1,   0.00,    1,  1.000,    0,  0.000,    0,  0.000,    0,  0.000
     301,      102,    "1",     0.000510,    0.011100,     1.256320,      0.000,      0.000,      0.000,     0.000000,     0.000000,     0.000000,     0.000000, 1, 1, 113.00,    1,  1.000,    0,  0.000,    0,  0.000,    0,  0.000
     301,      102,    "2",     0.000510,    0.011100,     1.256320,      0.000,      0.000,      0.000,     0.000000,     0.000000,     0.000000,     0.000000, 1, 1, 113.00,    1,  1.000,    0,  0.000,    0,  0.000,    0,  0.000
     136,      103,    "1",     0.000990,    0.014970,     1.715600,   3073.520,      0.000,      0.000,     0.000000,     0.000000,     0.000000,     0.000000, 1, 1,   0.00,    1,  1.000,    0,  0.000,    0,  0.000,    0,  0.000
     147,      103,    "1",     0.000330,    0.007050,     0.905420,   4317.480,      0.000,      0.000,     0.000000,     0.000000,     0.000000,     0.000000, 1, 1,   0.40,    1,  1.000,    0,  0.000,    0,  0.000,    0,  0.000
     205,      103,    "1",     0.000250,    0.003560,     0.393540,   3073.520,      0.000,      0.000,     0.000000,     0.000000,     0.000000,     0.000000, 1, 1,   0.40,    1,  1.000,    0,  0.000,    0,  0.000,    0,  0.000
     205,      103,    "2",     0.000250,    0.003560,     0.393540,   3073.520,      0.000,      0.000,     0.000000,     0.000000,     0.000000,     0.000000, 1, 1,   0.40,    1,  1.000,    0,  0.000,    0,  0.000,    0,  0.000
     105,      163,    "1",     0.000240,    0.005480,     0.633880,   3964.660,      0.000,      0.000,     0.000000,     0.000000,     0.000000,     0.000000, 1, 1,  55.00,    1,  1.000,    0,  0.000,    0,  0.000,    0,  0.000
     105,      197,    "1",     0.000510,    0.011450,     1.325400,   3964.660,      0.000,      0.000,     0.000000,     0.000000,     0.000000,     0.000000, 1, 1, 115.00,    1,  1.000,    0,  0.000,    0,  0.000,    0,  0.000
     106,      122,    "1",     0.000220,    0.004980,     0.576260,   3964.660,      0.000,      0.000,     0.000000,     0.000000,     0.000000,     0.000000, 1, 1,  50.00,    1,  1.000,    0,  0.000,    0,  0.000,    0,  0.000
     106,      122,    "2",     0.000220,    0.004980,     0.576260,   3964.660,      0.000,      0.000,     0.000000,     0.000000,     0.000000,     0.000000, 1, 1,  50.00,    1,  1.000,    0,  0.000,    0,  0.000,    0,  0.000
     106,      166,    "1",     0.000510,    0.007140,     0.757660,   3106.260,      0.000,      0.000,     0.000000,     0.000000,     0.000000,     0.000000, 1, 1,  70.00,    1,  1.000,    0,  0.000,    0,  0.000,    0,  0.000
     106,      166,    "2",     0.000510,    0.007140,     0.757660,   3106.260,      0.000,      0.000,     0.000000,     0.000000,     0.000000,     0.000000, 1, 1,  70.00,    1,  1.000,    0,  0.000,    0,  0.000,    0,  0.000
     106,      175,    "1",     0.000220,    0.004980,     0.576260,   3964.660,      0.000,      0.000,     0.000000,     0.000000,     0.000000,     0.000000, 1, 1,  50.00,    1,  1.000,    0,  0.000,    0,  0.000,    0,  0.000
     106,      175,    "2",     0.000220,    0.004980,     0.576260,   3964.660,      0.000,      0.000,     0.000000,     0.000000,     0.000000,     0.000000, 1, 1,  50.00,    1,  1.000,    0,  0.000,    0,  0.000,    0,  0.000
     106,      180,    "1",     0.000070,    0.001490,     0.172880,   3964.660,      0.000,      0.000,     0.000000,     0.000000,     0.000000,     0.000000, 1, 1,  15.00,    1,  1.000,    0,  0.000,    0,  0.000,    0,  0.000
     106,      180,    "2",     0.000070,    0.001490,     0.172880,   3964.660,      0.000,      0.000,     0.000000,     0.000000,     0.000000,     0.000000, 1, 1,  15.00,    1,  1.000,    0,  0.000,    0,  0.000,    0,  0.000
     121,      107,    "1",     0.000080,    0.002910,     6.284200,  17269.900,      0.000,      0.000,     0.000000,     0.000000,     0.000000,    -4.800000, 1, 1, 126.00,    1,  1.000,    0,  0.000,    0,  0.000,    0,  0.000
     121,      107,    "2",     0.000080,    0.002910,     6.284200,  17269.900,      0.000,      0.000,     0.000000,    -4.800000,     0.000000,     0.000000, 1, 1, 126.00,    1,  1.000,    0,  0.000,    0,  0.000,    0,  0.000
     107,      126,    "1",     0.000030,    0.001220,     2.643400,  17269.900,      0.000,      0.000,     0.000000,     0.000000,     0.000000,     0.000000, 1, 1,  53.00,    1,  1.000,    0,  0.000,    0,  0.000,    0,  0.000
     107,      126,    "2",     0.000030,    0.001220,     2.643400,  17269.900,      0.000,      0.000,     0.000000,     0.000000,     0.000000,     0.000000, 1, 1,  53.00,    1,  1.000,    0,  0.000,    0,  0.000,    0,  0.000
     183,      107,    "1",     0.000130,    0.005150,    11.122200,  17269.900,      0.000,      0.000,     0.000000,    -4.370000,     0.000000,    -4.370000, 1, 1, 223.00,    1,  1.000,    0,  0.000,    0,  0.000,    0,  0.000
     183,      107,    "2",     0.000130,    0.005150,    11.122200,  17269.900,      0.000,      0.000,     0.000000,    -4.370000,     0.000000,    -4.370000, 1, 1, 223.00,    1,  1.000,    0,  0.000,    0,  0.000,    0,  0.000
     148,      108,    "1",     0.000100,    0.001350,     0.142880,   3106.260,      0.000,      0.000,     0.000000,     0.000000,     0.000000,     0.000000, 1, 1,  13.20,    1,  1.000,    0,  0.000,    0,  0.000,    0,  0.000
     148,      108,    "2",     0.000100,    0.001350,     0.142880,   3106.260,      0.000,      0.000,     0.000000,     0.000000,     0.000000,     0.000000, 1, 1,  13.20,    1,  1.000,    0,  0.000,    0,  0.000,    0,  0.000
     124,      110,    "1",     0.000440,    0.006150,     0.680360,      0.000,      0.000,      0.000,     0.000000,     0.000000,     0.000000,     0.000000, 1, 1,  60.50,    1,  1.000,    0,  0.000,    0,  0.000,    0,  0.000
...